44
Supercell 2x2x1, with headspace 10.0 Ã…
Ti 1.88939 1.88939 14.74878
Ti 1.88939 0.00000 17.12317
Ti 0.00000 0.00000 10.00000
Ti 0.00000 1.88939 12.37439
O 0.00000 1.88939 14.35017
O 1.88939 1.88939 16.72456
O 1.88939 0.00000 15.14739
O 0.00000 0.00000 17.52178
O 0.00000 0.00000 11.97578
O 0.00000 1.88939 10.39861
O 1.88939 1.88939 12.77300
Ti 1.88939 5.66939 14.74878
Ti 1.88939 3.78000 17.12317
Ti 0.00000 3.78000 10.00000
Ti 0.00000 5.66939 12.37439
O 0.00000 5.66939 14.35017
O 1.88939 5.66939 16.72456
O 1.88939 3.78000 15.14739
O 0.00000 3.78000 17.52178
O 0.00000 3.78000 11.97578
O 0.00000 5.66939 10.39861
O 1.88939 5.66939 12.77300
Ti 5.66939 1.88939 14.74878
Ti 5.66939 0.00000 17.12317
Ti 3.78000 0.00000 10.00000
Ti 3.78000 1.88939 12.37439
O 3.78000 1.88939 14.35017
O 5.66939 1.88939 16.72456
O 5.66939 0.00000 15.14739
O 3.78000 0.00000 17.52178
O 3.78000 0.00000 11.97578
O 3.78000 1.88939 10.39861
O 5.66939 1.88939 12.77300
Ti 5.66939 5.66939 14.74878
Ti 5.66939 3.78000 17.12317
Ti 3.78000 3.78000 10.00000
Ti 3.78000 5.66939 12.37439
O 3.78000 5.66939 14.35017
O 5.66939 5.66939 16.72456
O 5.66939 3.78000 15.14739
O 3.78000 3.78000 17.52178
O 3.78000 3.78000 11.97578
O 3.78000 5.66939 10.39861
O 5.66939 5.66939 12.77300
