96
Supercell 1x4x2
Ti 1.68282 1.89041 4.81016
Ti 1.68241 0.00051 7.20942
Ti 0.16257 0.00050 -0.01554
Ti 0.16277 1.89034 2.41583
O 2.03054 1.89028 6.82255
O 2.03110 0.00060 5.19708
O 1.89272 0.00043 9.01868
O 0.09271 0.00035 1.97466
O 0.09287 1.89035 0.42627
O 1.89273 1.89037 3.00104
Ti 1.68282 1.89041 14.43016
Ti 1.68241 0.00051 16.82942
Ti 0.16257 0.00050 9.60446
Ti 0.16277 1.89034 12.03583
O 2.03054 1.89028 16.44255
O 2.03110 0.00060 14.81708
O 1.89272 0.00043 18.63868
O 0.09271 0.00035 11.59466
O 0.09287 1.89035 10.04627
O 1.89273 1.89037 12.62104
Ti 1.68282 5.67041 4.81016
Ti 1.68241 3.78051 7.20942
Ti 0.16257 3.78050 -0.01554
Ti 0.16277 5.67034 2.41583
O 2.03054 5.67028 6.82255
O 2.03110 3.78060 5.19708
O 1.89272 3.78043 9.01868
O 0.09271 3.78035 1.97466
O 0.09287 5.67035 0.42627
O 1.89273 5.67037 3.00104
Ti 1.68282 5.67041 14.43016
Ti 1.68241 3.78051 16.82942
Ti 0.16257 3.78050 9.60446
Ti 0.16277 5.67034 12.03583
O 2.03054 5.67028 16.44255
O 2.03110 3.78060 14.81708
O 1.89272 3.78043 18.63868
O 0.09271 3.78035 11.59466
O 0.09287 5.67035 10.04627
O 1.89273 5.67037 12.62104
Ti 1.68282 9.45041 4.81016
Ti 1.68241 7.56051 7.20942
Ti 0.16257 7.56050 -0.01554
Ti 0.16277 9.45034 2.41583
O 2.03054 9.45028 6.82255
O 2.03110 7.56060 5.19708
O 1.89272 7.56043 9.01868
O 0.09271 7.56035 1.97466
O 0.09287 9.45035 0.42627
O 1.89273 9.45037 3.00104
Ti 1.68282 9.45041 14.43016
Ti 1.68241 7.56051 16.82942
Ti 0.16257 7.56050 9.60446
Ti 0.16277 9.45034 12.03583
O 2.03054 9.45028 16.44255
O 2.03110 7.56060 14.81708
O 1.89272 7.56043 18.63868
O 0.09271 7.56035 11.59466
O 0.09287 9.45035 10.04627
O 1.89273 9.45037 12.62104
Ti 1.68282 13.23041 4.81016
Ti 1.68241 11.34051 7.20942
Ti 0.16257 11.34050 -0.01554
Ti 0.16277 13.23034 2.41583
O 2.03054 13.23028 6.82255
O 2.03110 11.34060 5.19708
O 1.89272 11.34043 9.01868
O 0.09271 11.34035 1.97466
O 0.09287 13.23035 0.42627
O 1.89273 13.23037 3.00104
Ti 1.68282 13.23041 14.43016
Ti 1.68241 11.34051 16.82942
Ti 0.16257 11.34050 9.60446
Ti 0.16277 13.23034 12.03583
O 2.03054 13.23028 16.44255
O 2.03110 11.34060 14.81708
O 1.89272 11.34043 18.63868
O 0.09271 11.34035 11.59466
O 0.09287 13.23035 10.04627
O 1.89273 13.23037 12.62104
Au 4.35400 3.81872 4.30657
Au 4.46517 5.88640 5.91094
Au 6.41942 4.05502 5.92907
Au 6.13684 5.60219 3.66829
Au 5.21680 8.01617 4.45351
Au 5.49458 9.99437 6.49352
Au 6.23185 7.49872 6.87732
Au 7.23364 9.79725 4.62214
Au 8.58777 4.68065 4.48519
Au 8.13071 5.75773 6.90745
Au 10.62251 4.98790 6.50988
Au 10.40013 6.67048 4.59498
Au 7.97847 7.40066 3.84842
Au 8.12773 9.35207 7.13017
Au 10.05122 7.56379 7.14986
Au 9.77148 9.17763 4.92113
