    9

Au      0.245445    0.138673    0.138673
Au      0.291656    2.236428    2.236428
Au      2.155945    0.121428    2.193653
Au      2.155945    2.193652    0.121427
Au      3.250671    3.693461    3.693461
Au      3.939488    0.099955    0.099955
Au      0.200100    3.991556    0.215527
Au      0.200101    0.215528    3.991557
Au      4.247088    2.020105    2.020105
