   44

Ti      1.889390    1.889390   14.748780
Ti      1.889390    0.000000   17.123170
Ti      0.000000    0.000000   10.000000
Ti      0.000000    1.889390   12.374390
O       0.000000    1.889390   14.350170
O       1.889390    1.889390   16.724560
O       1.889390    0.000000   15.147390
O       0.000000    0.000000   17.521780
O       0.000000    0.000000   11.975780
O       0.000000    1.889390   10.398610
O       1.889390    1.889390   12.773000
Ti      1.889390    5.669390   14.748780
Ti      1.889390    3.780000   17.123170
Ti      0.000000    3.780000   10.000000
Ti      0.000000    5.669390   12.374390
O       0.000000    5.669390   14.350170
O       1.889390    5.669390   16.724560
O       1.889390    3.780000   15.147390
O       0.000000    3.780000   17.521780
O       0.000000    3.780000   11.975780
O       0.000000    5.669390   10.398610
O       1.889390    5.669390   12.773000
Ti      5.669390    1.889390   14.748780
Ti      5.669390    0.000000   17.123170
Ti      3.780000    0.000000   10.000000
Ti      3.780000    1.889390   12.374390
O       3.780000    1.889390   14.350170
O       5.669390    1.889390   16.724560
O       5.669390    0.000000   15.147390
O       3.780000    0.000000   17.521780
O       3.780000    0.000000   11.975780
O       3.780000    1.889390   10.398610
O       5.669390    1.889390   12.773000
Ti      5.669390    5.669390   14.748780
Ti      5.669390    3.780000   17.123170
Ti      3.780000    3.780000   10.000000
Ti      3.780000    5.669390   12.374390
O       3.780000    5.669390   14.350170
O       5.669390    5.669390   16.724560
O       5.669390    3.780000   15.147390
O       3.780000    3.780000   17.521780
O       3.780000    3.780000   11.975780
O       3.780000    5.669390   10.398610
O       5.669390    5.669390   12.773000
